Referencia/OpenDSS/IEEETestCases/13Bus/IEEE13Nodeckt_VLN_elem.Txt

NODE-GROUND VOLTAGES BY CIRCUIT ELEMENT

Power Delivery Elements

Bus       (node ref)  Phase    Magnitude, kV (pu)    Angle

ELEMENT = "Vsource.SOURCE"
SOURCEBUS  (  1)    1           66.396 (       1) /_   30.0
SOURCEBUS  (  2)    2           66.397 (       1) /_  -90.0
SOURCEBUS  (  3)    3           66.401 (       1) /_  150.0
------------
SOURCEBUS  (  0)    0                0 (       0) /_    0.0
SOURCEBUS  (  0)    0                0 (       0) /_    0.0
SOURCEBUS  (  0)    0                0 (       0) /_    0.0

ELEMENT = "Transformer.SUB"
SOURCEBUS  (  1)    1           66.396 (       1) /_   30.0
SOURCEBUS  (  2)    2           66.397 (       1) /_  -90.0
SOURCEBUS  (  3)    3           66.401 (       1) /_  150.0
SOURCEBUS  (  0)    0                0 (       0) /_    0.0
------------
650        (  4)    1           2.4019 (       1) /_    0.0
650        (  5)    2           2.4017 (       1) /_ -120.0
650        (  6)    3           2.4019 (       1) /_  120.0
650        (  0)    0                0 (       0) /_    0.0

ELEMENT = "Transformer.REG1"
650        (  4)    1           2.4019 (       1) /_    0.0
650        (  0)    0                0 (       0) /_    0.0
------------
RG60       (  7)    1           2.4319 (   1.013) /_    0.0
RG60       (  0)    0                0 (       0) /_    0.0

ELEMENT = "Transformer.REG2"
650        (  5)    2           2.4017 (       1) /_ -120.0
650        (  0)    0                0 (       0) /_    0.0
------------
RG60       (  8)    2           2.4167 (   1.006) /_ -120.0
RG60       (  0)    0                0 (       0) /_    0.0

ELEMENT = "Transformer.REG3"
650        (  6)    3           2.4019 (       1) /_  120.0
650        (  0)    0                0 (       0) /_    0.0
------------
RG60       (  9)    3           2.4169 (   1.006) /_  120.0
RG60       (  0)    0                0 (       0) /_    0.0

ELEMENT = "Transformer.REG4"
650        (  4)    1           2.4019 (       1) /_    0.0
650        (  0)    0                0 (       0) /_    0.0
------------
RG70       ( 10)    1           2.4468 (   1.019) /_    0.0
RG70       (  0)    0                0 (       0) /_    0.0

ELEMENT = "Transformer.REG5"
650        (  5)    2           2.4017 (       1) /_ -120.0
650        (  0)    0                0 (       0) /_    0.0
------------
RG70       ( 11)    2           2.4466 (   1.019) /_ -120.0
RG70       (  0)    0                0 (       0) /_    0.0

ELEMENT = "Transformer.REG6"
650        (  6)    3           2.4019 (       1) /_  120.0
650        (  0)    0                0 (       0) /_    0.0
------------
RG70       ( 12)    3           2.4169 (   1.006) /_  120.0
RG70       (  0)    0                0 (       0) /_    0.0

ELEMENT = "Transformer.XFM1"
633        ( 13)    1           2.4057 (   1.002) /_   -0.4
633        ( 14)    2           2.4051 (   1.001) /_ -120.3
633        ( 15)    3           2.3965 (  0.9978) /_  119.9
633        (  0)    0                0 (       0) /_    0.0
------------
634        ( 16)    1          0.27082 (  0.9772) /_   -1.1
634        ( 17)    2          0.27222 (  0.9823) /_ -120.8
634        ( 18)    3          0.27121 (  0.9786) /_  119.4
634        (  0)    0                0 (       0) /_    0.0

ELEMENT = "Capacitor.CAP1"
675        ( 27)    1           2.2675 (  0.9441) /_   -5.2
675        ( 28)    2           2.4833 (   1.034) /_ -122.5
675        ( 29)    3          0.62989 (  0.2623) /_  -71.1
------------
675        (  0)    0                0 (       0) /_    0.0
675        (  0)    0                0 (       0) /_    0.0
675        (  0)    0                0 (       0) /_    0.0

ELEMENT = "Capacitor.CAP2"
611        ( 30)    3          0.61927 (   2.235) /_  -68.3
------------
611        (  0)    0                0 (       0) /_    0.0

ELEMENT = "Capacitor.CAP645"
645        ( 22)    2           2.4616 (   1.025) /_ -121.7
645        ( 22)    2           2.4616 (   1.025) /_ -121.7
645        ( 35)    3           2.4048 (   1.001) /_  121.0
------------
645        (  0)    0                0 (       0) /_    0.0
645        (  0)    0                0 (       0) /_    0.0
645        (  0)    0                0 (       0) /_    0.0

ELEMENT = "Capacitor.CAP692"
692        ( 25)    3          0.63705 (   2.299) /_  -70.5
692        ( 26)    1           2.2852 (   8.246) /_   -5.1
692        ( 25)    3          0.63705 (   2.299) /_  -70.5
------------
692        (  0)    0                0 (       0) /_    0.0
692        (  0)    0                0 (       0) /_    0.0
692        (  0)    0                0 (       0) /_    0.0

ELEMENT = "Line.650632"
RG60       (  7)    1           2.4319 (   1.013) /_    0.0
RG60       (  8)    2           2.4167 (   1.006) /_ -120.0
RG60       (  9)    3           2.4169 (   1.006) /_  120.0
------------
632        ( 36)    1            2.413 (   1.005) /_   -0.3
632        ( 37)    2           2.4099 (   1.003) /_ -120.3
632        ( 38)    3           2.4029 (       1) /_  119.9

ELEMENT = "Line.671680"
671        ( 19)    1           2.2852 (  0.9515) /_   -5.1
671        ( 20)    2           2.4803 (   1.033) /_ -122.3
671        ( 21)    3          0.63705 (  0.2652) /_  -70.5
------------
680        ( 39)    1           2.2852 (  0.9515) /_   -5.1
680        ( 40)    2           2.4803 (   1.033) /_ -122.3
680        ( 41)    3          0.63705 (  0.2652) /_  -70.5

ELEMENT = "Line.632633"
632        ( 36)    1            2.413 (   1.005) /_   -0.3
632        ( 37)    2           2.4099 (   1.003) /_ -120.3
632        ( 38)    3           2.4029 (       1) /_  119.9
------------
633        ( 13)    1           2.4057 (   1.002) /_   -0.4
633        ( 14)    2           2.4051 (   1.001) /_ -120.3
633        ( 15)    3           2.3965 (  0.9978) /_  119.9

ELEMENT = "Line.692675"
692        ( 26)    1           2.2852 (   8.246) /_   -5.1
692        ( 42)    2           2.4803 (    8.95) /_ -122.3
692        ( 25)    3          0.63705 (   2.299) /_  -70.5
------------
675        ( 27)    1           2.2675 (  0.9441) /_   -5.2
675        ( 28)    2           2.4833 (   1.034) /_ -122.5
675        ( 29)    3          0.62989 (  0.2623) /_  -71.1

ELEMENT = "Line.650645"
RG70       ( 10)    1           2.4468 (   1.019) /_    0.0
RG70       ( 11)    2           2.4466 (   1.019) /_ -120.0
RG70       ( 12)    3           2.4169 (   1.006) /_  120.0
------------
645        ( 43)    1           2.3617 (  0.9833) /_   -2.5
645        ( 22)    2           2.4616 (   1.025) /_ -121.7
645        ( 35)    3           2.4048 (   1.001) /_  121.0

ELEMENT = "Line.645646"
645        ( 35)    3           2.4048 (   1.001) /_  121.0
645        ( 22)    2           2.4616 (   1.025) /_ -121.7
------------
646        ( 24)    3           2.4001 (  0.9993) /_  121.1
646        ( 23)    2           2.4576 (   1.023) /_ -121.8

ELEMENT = "Line.645684"
645        ( 43)    1           2.3617 (  0.9833) /_   -2.5
645        ( 22)    2           2.4616 (   1.025) /_ -121.7
------------
684        ( 44)    1           2.3289 (  0.9696) /_   -3.1
684        ( 45)    2           2.4583 (   1.024) /_ -121.8

ELEMENT = "Line.684611"
684        ( 46)    3          0.62048 (  0.2583) /_  -68.2
------------
611        ( 30)    3          0.61927 (   2.235) /_  -68.3

ELEMENT = "Line.684652"
684        ( 45)    2           2.4583 (   1.024) /_ -121.8
------------
652        ( 47)    2           2.4583 ( 0.03702) /_ -121.8

ELEMENT = "Line.684671"
684        ( 44)    1           2.3289 (  0.9696) /_   -3.1
684        ( 45)    2           2.4583 (   1.024) /_ -121.8
684        ( 46)    3          0.62048 (  0.2583) /_  -68.2
------------
671        ( 19)    1           2.2852 (  0.9515) /_   -5.1
671        ( 20)    2           2.4803 (   1.033) /_ -122.3
671        ( 21)    3          0.63705 (  0.2652) /_  -70.5

ELEMENT = "Line.671692"
671        ( 19)    1           2.2852 (  0.9515) /_   -5.1
671        ( 20)    2           2.4803 (   1.033) /_ -122.3
671        ( 21)    3          0.63705 (  0.2652) /_  -70.5
------------
692        ( 26)    1           2.2852 (   8.246) /_   -5.1
692        ( 42)    2           2.4803 (    8.95) /_ -122.3
692        ( 25)    3          0.63705 (   2.299) /_  -70.5

= = = = = = = = = = = = = = = = = = =  = = = = = = = = = = =  = =

Power Conversion Elements

Bus       (node ref)  Phase    Magnitude, kV (pu)    Angle

ELEMENT = "Generator.PV"
650        (  4)    1           2.4019 (       1) /_    0.0
650        (  5)    2           2.4017 (       1) /_ -120.0
650        (  6)    3           2.4019 (       1) /_  120.0
650        (  0)    0                0 (       0) /_    0.0

ELEMENT = "Load.671"
671        ( 19)    1           2.2852 (  0.9515) /_   -5.1
671        ( 20)    2           2.4803 (   1.033) /_ -122.3
671        ( 21)    3          0.63705 (  0.2652) /_  -70.5

ELEMENT = "Load.634A"
634        ( 16)    1          0.27082 (  0.9772) /_   -1.1
634        (  0)    0                0 (       0) /_    0.0

ELEMENT = "Load.634B"
634        ( 17)    2          0.27222 (  0.9823) /_ -120.8
634        (  0)    0                0 (       0) /_    0.0

ELEMENT = "Load.634C"
634        ( 18)    3          0.27121 (  0.9786) /_  119.4
634        (  0)    0                0 (       0) /_    0.0

ELEMENT = "Load.645"
645        ( 22)    2           2.4616 (   1.025) /_ -121.7
645        (  0)    0                0 (       0) /_    0.0

ELEMENT = "Load.646"
646        ( 23)    2           2.4576 (   1.023) /_ -121.8
646        ( 24)    3           2.4001 (  0.9993) /_  121.1

ELEMENT = "Load.692"
692        ( 25)    3          0.63705 (   2.299) /_  -70.5
692        ( 26)    1           2.2852 (   8.246) /_   -5.1

ELEMENT = "Load.675A"
675        ( 27)    1           2.2675 (  0.9441) /_   -5.2
675        (  0)    0                0 (       0) /_    0.0

ELEMENT = "Load.675B"
675        ( 28)    2           2.4833 (   1.034) /_ -122.5
675        (  0)    0                0 (       0) /_    0.0

ELEMENT = "Load.675C"
675        ( 29)    3          0.62989 (  0.2623) /_  -71.1
675        (  0)    0                0 (       0) /_    0.0

ELEMENT = "Load.611"
611        ( 30)    3          0.61927 (   2.235) /_  -68.3
611        (  0)    0                0 (       0) /_    0.0

ELEMENT = "Load.652"
652        ( 31)    1                0 (       0) /_    0.0
652        (  0)    0                0 (       0) /_    0.0

ELEMENT = "Load.670A"
670        ( 32)    1                0 (       0) /_    0.0
670        (  0)    0                0 (       0) /_    0.0

ELEMENT = "Load.670B"
670        ( 33)    2                0 (       0) /_    0.0
670        (  0)    0                0 (       0) /_    0.0

ELEMENT = "Load.670C"
670        ( 34)    3                0 (       0) /_    0.0
670        (  0)    0                0 (       0) /_    0.0

